TCC/13Barras/Resultados/IEEE13BARRAS_Power_elem_kVA - 04.txt

CIRCUIT ELEMENT POWER FLOW

(Power Flow into element from indicated Bus)

Power Delivery Elements

  Bus     Phase     kW     +j   kvar         kVA         PF

ELEMENT = "Vsource.SOURCE"
SOURCEBUS     1      -389.7 +j   -103.9      403.3       0.9662
SOURCEBUS     2      -467.7 +j     11.7      467.8      -0.9997
SOURCEBUS     3      -528.8 +j   -113.7      540.9       0.9777
   TERMINAL TOTAL . -1386.1 +j   -205.9     1401.4       0.9891
SOURCEBUS     0         0.0 +j      0.0        0.0       1.0000
SOURCEBUS     0         0.0 +j      0.0        0.0       1.0000
SOURCEBUS     0         0.0 +j      0.0        0.0       1.0000
   TERMINAL TOTAL .     0.0 +j      0.0        0.0       1.0000

ELEMENT = "Transformer.SUBESTACAO"
SOURCEBUS     1       389.7 +j    103.9      403.3       0.9662
SOURCEBUS     2       467.7 +j    -11.7      467.8      -0.9997
SOURCEBUS     3       528.8 +j    113.7      540.9       0.9777
SOURCEBUS     0         0.0 +j      0.0        0.0       1.0000
   TERMINAL TOTAL .  1386.1 +j    205.9     1401.4       0.9891
650           1      -493.8 +j   -129.6      510.5       0.9673
650           2      -360.1 +j     -0.5      360.1       1.0000
650           3      -532.3 +j    -75.0      537.6       0.9902
650           0         0.0 +j      0.0        0.0       1.0000
   TERMINAL TOTAL . -1386.1 +j   -205.0     1401.2       0.9892

ELEMENT = "Transformer.TR611"
611           3        84.8 +j     39.9       93.7       0.9048
611           0         0.0 +j      0.0        0.0       1.0000
   TERMINAL TOTAL .    84.8 +j     39.9       93.7       0.9048
C611          3       -84.8 +j    -39.9       93.7       0.9048
C611          0         0.0 +j      0.0        0.0       1.0000
   TERMINAL TOTAL .   -84.8 +j    -39.9       93.7       0.9048

ELEMENT = "Transformer.TR634"
633           1        81.8 +j     56.3       99.3       0.8240
633           2        61.4 +j     46.0       76.7       0.8000
633           3        61.4 +j     46.0       76.7       0.8000
633           0         0.0 +j      0.0        0.0       1.0000
   TERMINAL TOTAL .   204.6 +j    148.3      252.7       0.8096
C634          1       -81.8 +j    -56.3       99.3       0.8240
C634          2       -61.4 +j    -46.0       76.7       0.8000
C634          3       -61.4 +j    -46.0       76.7       0.8000
C634          0         0.0 +j      0.0        0.0       1.0000
   TERMINAL TOTAL .  -204.6 +j   -148.3      252.7       0.8096

ELEMENT = "Transformer.TR645"
645           2        86.9 +j     63.9      107.9       0.8057
645           0         0.0 +j      0.0        0.0       1.0000
   TERMINAL TOTAL .    86.9 +j     63.9      107.9       0.8057
C645          2       -86.9 +j    -63.9      107.9       0.8057
C645          0         0.0 +j      0.0        0.0       1.0000
   TERMINAL TOTAL .   -86.9 +j    -63.9      107.9       0.8057

ELEMENT = "Transformer.TR646"
646           2        77.4 +j      0.2       77.4       1.0000
646           3        38.3 +j     66.2       76.5       0.5009
646           0         0.0 +j      0.0        0.0       1.0000
   TERMINAL TOTAL .   115.7 +j     66.4      133.4       0.8673
C646          2       -77.4 +j     -0.2       77.4       1.0000
C646          3       -38.3 +j    -66.2       76.5       0.5009
C646          0         0.0 +j      0.0        0.0       1.0000
   TERMINAL TOTAL .  -115.7 +j    -66.4      133.4       0.8673

ELEMENT = "Transformer.TR652"
652           1        62.1 +j     41.7       74.8       0.8301
652           0         0.0 +j      0.0        0.0       1.0000
   TERMINAL TOTAL .    62.1 +j     41.7       74.8       0.8301
C652          1       -62.1 +j    -41.7       74.8       0.8300
C652          0         0.0 +j      0.0        0.0       1.0000
   TERMINAL TOTAL .   -62.1 +j    -41.7       74.8       0.8300

ELEMENT = "Transformer.TR670"
670           1         8.7 +j      5.1       10.1       0.8619
670           2        33.8 +j     19.4       38.9       0.8666
670           3        59.8 +j     34.8       69.2       0.8646
670           0         0.0 +j      0.0        0.0       1.0000
   TERMINAL TOTAL .   102.3 +j     59.3      118.2       0.8650
C670          1        -8.7 +j     -5.1       10.1       0.8619
C670          2       -33.8 +j    -19.4       38.9       0.8666
C670          3       -59.8 +j    -34.8       69.2       0.8646
C670          0         0.0 +j      0.0        0.0       1.0000
   TERMINAL TOTAL .  -102.3 +j    -59.3      118.2       0.8650

ELEMENT = "Transformer.TR671"
671           1        65.4 +j     36.3       74.7       0.8744
671           2        66.6 +j     39.4       77.4       0.8605
671           3        64.9 +j     36.8       74.7       0.8699
671           0         0.0 +j      0.0        0.0       1.0000
   TERMINAL TOTAL .   196.9 +j    112.5      226.8       0.8682
C671          1       -65.4 +j    -36.3       74.7       0.8744
C671          2       -66.6 +j    -39.4       77.4       0.8605
C671          3       -64.9 +j    -36.8       74.7       0.8699
C671          0         0.0 +j      0.0        0.0       1.0000
   TERMINAL TOTAL .  -196.9 +j   -112.5      226.8       0.8682

ELEMENT = "Transformer.TR675"
675           1       248.0 +j     97.2      266.4       0.9311
675           2        34.8 +j     30.7       46.4       0.7498
675           3       148.3 +j    108.4      183.7       0.8073
675           0         0.0 +j      0.0        0.0       1.0000
   TERMINAL TOTAL .   431.1 +j    236.3      491.6       0.8769
C675          1      -248.0 +j    -97.2      266.4       0.9311
C675          2       -34.8 +j    -30.7       46.4       0.7498
C675          3      -148.3 +j   -108.4      183.7       0.8073
C675          0         0.0 +j      0.0        0.0       1.0000
   TERMINAL TOTAL .  -431.1 +j   -236.3      491.6       0.8769

ELEMENT = "Transformer.TR692"
692           3        64.3 +j     13.5       65.7       0.9787
692           1        21.1 +j     62.3       65.8       0.3202
692           0         0.0 +j      0.0        0.0       1.0000
   TERMINAL TOTAL .    85.4 +j     75.8      114.2       0.7477
C692          3       -64.3 +j    -13.5       65.7       0.9787
C692          1       -21.1 +j    -62.3       65.8       0.3202
C692          0         0.0 +j      0.0        0.0       1.0000
   TERMINAL TOTAL .   -85.4 +j    -75.8      114.2       0.7477

ELEMENT = "Line.650632"
REG           1       493.8 +j    129.5      510.5       0.9673
REG           2       360.1 +j      0.5      360.1       1.0000
REG           3       532.3 +j     75.0      537.6       0.9902
   TERMINAL TOTAL .  1386.1 +j    205.0     1401.2       0.9892
632           1      -490.3 +j   -117.8      504.3       0.9723
632           2      -360.9 +j      4.1      360.9      -0.9999
632           3      -526.5 +j    -63.7      530.3       0.9928
   TERMINAL TOTAL . -1377.7 +j   -177.4     1389.0       0.9918

ELEMENT = "Line.632670"
632           1       408.4 +j     61.4      413.0       0.9889
632           2       134.4 +j   -114.9      176.8      -0.7600
632           3       426.6 +j    -48.7      429.4      -0.9935
   TERMINAL TOTAL .   969.4 +j   -102.2      974.8      -0.9945
670           1      -407.9 +j    -58.3      412.0       0.9899
670           2      -134.8 +j    115.5      177.5      -0.7595
670           3      -425.0 +j     50.9      428.0      -0.9929
   TERMINAL TOTAL .  -967.6 +j    108.1      973.6      -0.9938

ELEMENT = "Line.670671"
670           1       399.2 +j     53.2      402.7       0.9913
670           2       101.0 +j   -134.9      168.5      -0.5995
670           3       365.1 +j    -85.7      375.0      -0.9736
   TERMINAL TOTAL .   865.3 +j   -167.4      881.4      -0.9818
671           1      -397.8 +j    -46.9      400.5       0.9931
671           2      -101.7 +j    136.2      170.0      -0.5984
671           3      -362.7 +j     88.4      373.4      -0.9715
   TERMINAL TOTAL .  -862.2 +j    177.7      880.3      -0.9794

ELEMENT = "Line.671680"
671           1        -0.0 +j     -0.0        0.0       0.0923
671           2         0.0 +j     -0.0        0.0      -0.1479
671           3        -0.0 +j     -0.0        0.0       0.0639
   TERMINAL TOTAL .     0.0 +j     -0.0        0.0      -0.0000
680           1         0.0 +j      0.0        0.0       0.8252
680           2         0.0 +j     -0.0        0.0      -0.2443
680           3        -0.0 +j     -0.0        0.0       0.2914
   TERMINAL TOTAL .     0.0 +j     -0.0        0.0      -0.5786

ELEMENT = "Line.632633"
632           1        81.9 +j     56.4       99.5       0.8237
632           2        61.4 +j     46.1       76.8       0.7998
632           3        61.5 +j     46.1       76.8       0.8000
   TERMINAL TOTAL .   204.8 +j    148.6      253.0       0.8094
633           1       -81.8 +j    -56.3       99.3       0.8240
633           2       -61.4 +j    -46.0       76.7       0.8000
633           3       -61.4 +j    -46.0       76.7       0.8000
   TERMINAL TOTAL .  -204.6 +j   -148.3      252.7       0.8096

ELEMENT = "Line.632645"
632           3        38.4 +j     66.3       76.6       0.5015
632           2       165.1 +j     64.8      177.3       0.9309
   TERMINAL TOTAL .   203.5 +j    131.1      242.0       0.8407
645           3       -38.4 +j    -66.2       76.5       0.5012
645           2      -164.4 +j    -64.2      176.5       0.9315
   TERMINAL TOTAL .  -202.8 +j   -130.4      241.1       0.8410

ELEMENT = "Line.645646"
645           3        38.4 +j     66.2       76.5       0.5012
645           2        77.5 +j      0.3       77.5       1.0000
   TERMINAL TOTAL .   115.8 +j     66.5      133.6       0.8672
646           3       -38.3 +j    -66.2       76.5       0.5009
646           2       -77.4 +j     -0.2       77.4       1.0000
   TERMINAL TOTAL .  -115.7 +j    -66.4      133.4       0.8673

ELEMENT = "Line.692675"
692           1       249.0 +j    -93.4      266.0      -0.9363
692           2        35.1 +j   -175.6      179.1      -0.1961
692           3       148.4 +j    -83.1      170.1      -0.8724
   TERMINAL TOTAL .   432.5 +j   -352.2      557.8      -0.7755
675           1      -248.0 +j     93.9      265.2      -0.9352
675           2       -34.8 +j    175.9      179.3      -0.1939
675           3      -148.3 +j     83.1      170.0      -0.8723
   TERMINAL TOTAL .  -431.1 +j    353.0      557.2      -0.7737

ELEMENT = "Line.671684"
671           1        62.3 +j     41.7       75.0       0.8309
671           3        85.1 +j    -55.7      101.7      -0.8368
   TERMINAL TOTAL .   147.4 +j    -13.9      148.0      -0.9956
684           1       -62.3 +j    -41.7       74.9       0.8309
684           3       -84.9 +j     55.8      101.6      -0.8359
   TERMINAL TOTAL .  -147.2 +j     14.1      147.9      -0.9955

ELEMENT = "Line.684611"
684           3        84.9 +j    -55.8      101.6      -0.8359
   TERMINAL TOTAL .    84.9 +j    -55.8      101.6      -0.8359
611           3       -84.8 +j     55.9      101.6      -0.8349
   TERMINAL TOTAL .   -84.8 +j     55.9      101.6      -0.8349

ELEMENT = "Line.684652"
684           1        62.3 +j     41.7       74.9       0.8309
   TERMINAL TOTAL .    62.3 +j     41.7       74.9       0.8309
652           1       -62.1 +j    -41.7       74.8       0.8301
   TERMINAL TOTAL .   -62.1 +j    -41.7       74.8       0.8301

ELEMENT = "Transformer.REGFASEA"
650           1       493.8 +j    129.6      510.5       0.9673
650           0         0.0 +j      0.0        0.0       1.0000
   TERMINAL TOTAL .   493.8 +j    129.6      510.5       0.9673
REG           1      -493.8 +j   -129.5      510.5       0.9673
REG           0         0.0 +j      0.0        0.0       1.0000
   TERMINAL TOTAL .  -493.8 +j   -129.5      510.5       0.9673

ELEMENT = "Transformer.REGFASEB"
650           2       360.1 +j      0.5      360.1       1.0000
650           0         0.0 +j      0.0        0.0       1.0000
   TERMINAL TOTAL .   360.1 +j      0.5      360.1       1.0000
REG           2      -360.1 +j     -0.5      360.1       1.0000
REG           0         0.0 +j      0.0        0.0       1.0000
   TERMINAL TOTAL .  -360.1 +j     -0.5      360.1       1.0000

ELEMENT = "Transformer.REGFASEC"
650           3       532.3 +j     75.0      537.6       0.9902
650           0         0.0 +j      0.0        0.0       1.0000
   TERMINAL TOTAL .   532.3 +j     75.0      537.6       0.9902
REG           3      -532.3 +j    -75.0      537.6       0.9902
REG           0         0.0 +j      0.0        0.0       1.0000
   TERMINAL TOTAL .  -532.3 +j    -75.0      537.6       0.9902

ELEMENT = "Capacitor.CAP1"
675           1         0.0 +j   -191.1      191.1       1.0000
675           2        -0.0 +j   -206.6      206.6       0.0000
675           3         0.0 +j   -191.6      191.6       1.0000
   TERMINAL TOTAL .    -0.0 +j   -589.3      589.3       0.0000
675           0         0.0 +j      0.0        0.0       1.0000
675           0         0.0 +j      0.0        0.0       1.0000
675           0         0.0 +j      0.0        0.0       1.0000
   TERMINAL TOTAL .     0.0 +j      0.0        0.0       1.0000

ELEMENT = "Capacitor.CAP2"
611           3         0.0 +j    -95.8       95.8       1.0000
   TERMINAL TOTAL .     0.0 +j    -95.8       95.8       1.0000
611           0         0.0 +j      0.0        0.0       1.0000
   TERMINAL TOTAL .     0.0 +j      0.0        0.0       1.0000

ELEMENT = "Line.671692"
671           1       270.1 +j    -31.1      271.9      -0.9934
671           2        35.1 +j   -175.6      179.1      -0.1961
671           3       212.7 +j    -69.6      223.8      -0.9504
   TERMINAL TOTAL .   517.9 +j   -276.3      587.0      -0.8823
692           1      -270.1 +j     31.1      271.9      -0.9934
692           2       -35.1 +j    175.6      179.1      -0.1961
692           3      -212.7 +j     69.6      223.8      -0.9504
   TERMINAL TOTAL .  -517.9 +j    276.3      587.0      -0.8823

= = = = = = = = = = = = = = = = = = =  = = = = = = = = = = =  = =

Power Conversion Elements

  Bus     Phase     kW   +j  kvar         kVA         PF

ELEMENT = "Load.611"
C611          3      84.8 +j   39.9       93.7       0.9048
C611          0       0.0 +j    0.0        0.0       1.0000
  TERMINAL TOTAL  .    84.8 +j     39.9       93.7       0.9048

ELEMENT = "Load.634A"
C634          1      81.8 +j   56.3       99.3       0.8240
C634          0       0.0 +j    0.0        0.0       1.0000
  TERMINAL TOTAL  .    81.8 +j     56.3       99.3       0.8240

ELEMENT = "Load.634B"
C634          2      61.4 +j   46.0       76.7       0.8000
C634          0       0.0 +j    0.0        0.0       1.0000
  TERMINAL TOTAL  .    61.4 +j     46.0       76.7       0.8000

ELEMENT = "Load.634C"
C634          3      61.4 +j   46.0       76.7       0.8000
C634          0       0.0 +j    0.0        0.0       1.0000
  TERMINAL TOTAL  .    61.4 +j     46.0       76.7       0.8000

ELEMENT = "Load.645"
C645          2      86.9 +j   63.9      107.9       0.8057
C645          0       0.0 +j    0.0        0.0       1.0000
  TERMINAL TOTAL  .    86.9 +j     63.9      107.9       0.8057

ELEMENT = "Load.646"
C646          2      77.4 +j    0.2       77.4       1.0000
C646          3      38.3 +j   66.2       76.5       0.5009
  TERMINAL TOTAL  .   115.7 +j     66.4      133.4       0.8673

ELEMENT = "Load.652"
C652          1      62.1 +j   41.7       74.8       0.8300
C652          0       0.0 +j    0.0        0.0       1.0000
  TERMINAL TOTAL  .    62.1 +j     41.7       74.8       0.8300

ELEMENT = "Load.670A"
C670          1       8.7 +j    5.1       10.1       0.8619
C670          0       0.0 +j    0.0        0.0       1.0000
  TERMINAL TOTAL  .     8.7 +j      5.1       10.1       0.8619

ELEMENT = "Load.670B"
C670          2      33.8 +j   19.4       38.9       0.8666
C670          0       0.0 +j    0.0        0.0       1.0000
  TERMINAL TOTAL  .    33.8 +j     19.4       38.9       0.8666

ELEMENT = "Load.670C"
C670          3      59.8 +j   34.8       69.2       0.8646
C670          0       0.0 +j    0.0        0.0       1.0000
  TERMINAL TOTAL  .    59.8 +j     34.8       69.2       0.8646

ELEMENT = "Load.671"
C671          1      65.4 +j   36.3       74.7       0.8744
C671          2      66.6 +j   39.4       77.4       0.8605
C671          3      64.9 +j   36.8       74.7       0.8699
  TERMINAL TOTAL  .   196.9 +j    112.5      226.8       0.8682

ELEMENT = "Load.675A"
C675          1     248.0 +j   97.2      266.4       0.9311
C675          0       0.0 +j    0.0        0.0       1.0000
  TERMINAL TOTAL  .   248.0 +j     97.2      266.4       0.9311

ELEMENT = "Load.675B"
C675          2      34.8 +j   30.7       46.4       0.7498
C675          0       0.0 +j    0.0        0.0       1.0000
  TERMINAL TOTAL  .    34.8 +j     30.7       46.4       0.7498

ELEMENT = "Load.675C"
C675          3     148.3 +j  108.4      183.7       0.8073
C675          0       0.0 +j    0.0        0.0       1.0000
  TERMINAL TOTAL  .   148.3 +j    108.4      183.7       0.8073

ELEMENT = "Load.692"
C692          3      64.3 +j   13.5       65.7       0.9787
C692          1      21.1 +j   62.3       65.8       0.3202
  TERMINAL TOTAL  .    85.4 +j     75.8      114.2       0.7477


Total Circuit Losses =   16.4 +j   46.8
